<routes>
<vType id="type1" length="5" accel="5" decel="10"/>
<route id="f_1" edges="e1_n1 n1_n2 n2_e2"/>
<route id="f_2" edges="e1_n1 n1_n3 n3_n4 n4_n5 n5_e5"/>
<route id="f_3" edges="e1_n1 n1_n3 n3_n4 n4_n5 n5_n6 n6_n8 n8_n7 n7_e7"/>
<route id="f_4" edges="e1_n1 n1_n3 n3_n4 n4_n11 n11_n14 n14_n23 n23_e23"/>
<route id="f_5" edges="e2_n2 n2_n1 n1_e1"/>
<route id="f_6" edges="e2_n2 n2_n6 n6_n5 n5_e5"/>
<route id="f_7" edges="e2_n2 n2_n6 n6_n8 n8_n7 n7_e7"/>
<route id="f_8" edges="e2_n2 n2_n1 n1_n3 n3_n12 n12_n13 n13_e13"/>
<route id="f_9" edges="e2_n2 n2_n6 n6_n8 n8_n16 n16_n10 n10_n15 n15_n22 n22_n23 n23_e23"/>
<route id="f_10" edges="e3_n3 n3_n1 n1_e1"/>
<route id="f_11" edges="e3_n3 n3_n4 n4_n5 n5_n6 n6_n8 n8_n7 n7_e7"/>
<route id="f_12" edges="e5_n5 n5_n6 n6_n2 n2_e2"/>
<route id="f_13" edges="e5_n5 n5_n9 n9_n10 n10_n15 n15_n22 n22_n23 n23_e23"/>
<route id="f_14" edges="e7_n7 n7_n8 n8_n6 n6_n2 n2_n1 n1_e1"/>
<route id="f_15" edges="e7_n7 n7_n8 n8_n6 n6_n2 n2_e2"/>
<route id="f_16" edges="e7_n7 n7_n18 n18_n20 n20_n21 n21_n24 n24_n13 n13_e13"/>
<route id="f_17" edges="e7_n7 n7_n18 n18_n20 n20_n22 n22_n23 n23_e23"/>
<route id="f_18" edges="e13_n13 n13_n24 n24_n23 n23_n14 n14_n11 n11_n4 n4_n5 n5_n6 n6_n2 n2_e2"/>
<route id="f_19" edges="e13_n13 n13_n12 n12_n3 n3_e3"/>
<route id="f_20" edges="e13_n13 n13_n12 n12_n3 n3_n4 n4_n5 n5_e5"/>
<route id="f_21" edges="e13_n13 n13_n24 n24_n21 n21_n20 n20_n18 n18_n7 n7_e7"/>
<route id="f_22" edges="e13_n13 n13_n24 n24_n23 n23_e23"/>
<route id="f_23" edges="e23_n23 n23_n14 n14_n11 n11_n4 n4_n3 n3_n1 n1_e1"/>
<route id="f_24" edges="e23_n23 n23_n14 n14_n11 n11_n4 n4_n5 n5_e5"/>
<route id="f_25" edges="e23_n23 n23_n22 n22_n20 n20_n18 n18_n7 n7_e7"/>
<route id="f_26" edges="e23_n23 n23_n24 n24_n13 n13_e13"/>
<flow id="f_1_1" route="f_1" departPos="random_free" begin="0" end="360" vehsPerHour="72" type="type1"/>
<flow id="f_2_1" route="f_2" departPos="random_free" begin="0" end="360" vehsPerHour="72" type="type1"/>
<flow id="f_3_1" route="f_3" departPos="random_free" begin="0" end="360" vehsPerHour="72" type="type1"/>
<flow id="f_4_1" route="f_4" departPos="random_free" begin="0" end="360" vehsPerHour="108" type="type1"/>
<flow id="f_5_1" route="f_5" departPos="random_free" begin="0" end="360" vehsPerHour="36" type="type1"/>
<flow id="f_6_1" route="f_6" departPos="random_free" begin="0" end="360" vehsPerHour="24" type="type1"/>
<flow id="f_7_1" route="f_7" departPos="random_free" begin="0" end="360" vehsPerHour="216" type="type1"/>
<flow id="f_8_1" route="f_8" departPos="random_free" begin="0" end="360" vehsPerHour="72" type="type1"/>
<flow id="f_9_1" route="f_9" departPos="random_free" begin="0" end="360" vehsPerHour="72" type="type1"/>
<flow id="f_10_1" route="f_10" departPos="random_free" begin="0" end="360" vehsPerHour="36" type="type1"/>
<flow id="f_11_1" route="f_11" departPos="random_free" begin="0" end="360" vehsPerHour="72" type="type1"/>
<flow id="f_12_1" route="f_12" departPos="random_free" begin="0" end="360" vehsPerHour="216" type="type1"/>
<flow id="f_13_1" route="f_13" departPos="random_free" begin="0" end="360" vehsPerHour="144" type="type1"/>
<flow id="f_14_1" route="f_14" departPos="random_free" begin="0" end="360" vehsPerHour="108" type="type1"/>
<flow id="f_15_1" route="f_15" departPos="random_free" begin="0" end="360" vehsPerHour="24" type="type1"/>
<flow id="f_16_1" route="f_16" departPos="random_free" begin="0" end="360" vehsPerHour="216" type="type1"/>
<flow id="f_17_1" route="f_17" departPos="random_free" begin="0" end="360" vehsPerHour="72" type="type1"/>
<flow id="f_18_1" route="f_18" departPos="random_free" begin="0" end="360" vehsPerHour="108" type="type1"/>
<flow id="f_19_1" route="f_19" departPos="random_free" begin="0" end="360" vehsPerHour="48" type="type1"/>
<flow id="f_20_1" route="f_20" departPos="random_free" begin="0" end="360" vehsPerHour="324" type="type1"/>
<flow id="f_21_1" route="f_21" departPos="random_free" begin="0" end="360" vehsPerHour="72" type="type1"/>
<flow id="f_22_1" route="f_22" departPos="random_free" begin="0" end="360" vehsPerHour="72" type="type1"/>
<flow id="f_23_1" route="f_23" departPos="random_free" begin="0" end="360" vehsPerHour="36" type="type1"/>
<flow id="f_24_1" route="f_24" departPos="random_free" begin="0" end="360" vehsPerHour="36" type="type1"/>
<flow id="f_25_1" route="f_25" departPos="random_free" begin="0" end="360" vehsPerHour="324" type="type1"/>
<flow id="f_26_1" route="f_26" departPos="random_free" begin="0" end="360" vehsPerHour="72" type="type1"/>
<flow id="f_1_2" route="f_1" departPos="random_free" begin="360" end="720" vehsPerHour="120" type="type1"/>
<flow id="f_2_2" route="f_2" departPos="random_free" begin="360" end="720" vehsPerHour="48" type="type1"/>
<flow id="f_3_2" route="f_3" departPos="random_free" begin="360" end="720" vehsPerHour="72" type="type1"/>
<flow id="f_4_2" route="f_4" departPos="random_free" begin="360" end="720" vehsPerHour="72" type="type1"/>
<flow id="f_5_2" route="f_5" departPos="random_free" begin="360" end="720" vehsPerHour="60" type="type1"/>
<flow id="f_6_2" route="f_6" departPos="random_free" begin="360" end="720" vehsPerHour="24" type="type1"/>
<flow id="f_7_2" route="f_7" departPos="random_free" begin="360" end="720" vehsPerHour="240" type="type1"/>
<flow id="f_8_2" route="f_8" departPos="random_free" begin="360" end="720" vehsPerHour="120" type="type1"/>
<flow id="f_9_2" route="f_9" departPos="random_free" begin="360" end="720" vehsPerHour="72" type="type1"/>
<flow id="f_10_2" route="f_10" departPos="random_free" begin="360" end="720" vehsPerHour="24" type="type1"/>
<flow id="f_11_2" route="f_11" departPos="random_free" begin="360" end="720" vehsPerHour="72" type="type1"/>
<flow id="f_12_2" route="f_12" departPos="random_free" begin="360" end="720" vehsPerHour="240" type="type1"/>
<flow id="f_13_2" route="f_13" departPos="random_free" begin="360" end="720" vehsPerHour="240" type="type1"/>
<flow id="f_14_2" route="f_14" departPos="random_free" begin="360" end="720" vehsPerHour="72" type="type1"/>
<flow id="f_15_2" route="f_15" departPos="random_free" begin="360" end="720" vehsPerHour="24" type="type1"/>
<flow id="f_16_2" route="f_16" departPos="random_free" begin="360" end="720" vehsPerHour="240" type="type1"/>
<flow id="f_17_2" route="f_17" departPos="random_free" begin="360" end="720" vehsPerHour="48" type="type1"/>
<flow id="f_18_2" route="f_18" departPos="random_free" begin="360" end="720" vehsPerHour="180" type="type1"/>
<flow id="f_19_2" route="f_19" departPos="random_free" begin="360" end="720" vehsPerHour="48" type="type1"/>
<flow id="f_20_2" route="f_20" departPos="random_free" begin="360" end="720" vehsPerHour="360" type="type1"/>
<flow id="f_21_2" route="f_21" departPos="random_free" begin="360" end="720" vehsPerHour="120" type="type1"/>
<flow id="f_22_2" route="f_22" departPos="random_free" begin="360" end="720" vehsPerHour="48" type="type1"/>
<flow id="f_23_2" route="f_23" departPos="random_free" begin="360" end="720" vehsPerHour="36" type="type1"/>
<flow id="f_24_2" route="f_24" departPos="random_free" begin="360" end="720" vehsPerHour="24" type="type1"/>
<flow id="f_25_2" route="f_25" departPos="random_free" begin="360" end="720" vehsPerHour="360" type="type1"/>
<flow id="f_26_2" route="f_26" departPos="random_free" begin="360" end="720" vehsPerHour="120" type="type1"/>
<flow id="f_1_3" route="f_1" departPos="random_free" begin="720" end="1080" vehsPerHour="96" type="type1"/>
<flow id="f_2_3" route="f_2" departPos="random_free" begin="720" end="1080" vehsPerHour="96" type="type1"/>
<flow id="f_3_3" route="f_3" departPos="random_free" begin="720" end="1080" vehsPerHour="108" type="type1"/>
<flow id="f_4_3" route="f_4" departPos="random_free" begin="720" end="1080" vehsPerHour="144" type="type1"/>
<flow id="f_5_3" route="f_5" departPos="random_free" begin="720" end="1080" vehsPerHour="48" type="type1"/>
<flow id="f_6_3" route="f_6" departPos="random_free" begin="720" end="1080" vehsPerHour="36" type="type1"/>
<flow id="f_7_3" route="f_7" departPos="random_free" begin="720" end="1080" vehsPerHour="216" type="type1"/>
<flow id="f_8_3" route="f_8" departPos="random_free" begin="720" end="1080" vehsPerHour="96" type="type1"/>
<flow id="f_9_3" route="f_9" departPos="random_free" begin="720" end="1080" vehsPerHour="108" type="type1"/>
<flow id="f_10_3" route="f_10" departPos="random_free" begin="720" end="1080" vehsPerHour="48" type="type1"/>
<flow id="f_11_3" route="f_11" departPos="random_free" begin="720" end="1080" vehsPerHour="108" type="type1"/>
<flow id="f_12_3" route="f_12" departPos="random_free" begin="720" end="1080" vehsPerHour="216" type="type1"/>
<flow id="f_13_3" route="f_13" departPos="random_free" begin="720" end="1080" vehsPerHour="192" type="type1"/>
<flow id="f_14_3" route="f_14" departPos="random_free" begin="720" end="1080" vehsPerHour="144" type="type1"/>
<flow id="f_15_3" route="f_15" departPos="random_free" begin="720" end="1080" vehsPerHour="36" type="type1"/>
<flow id="f_16_3" route="f_16" departPos="random_free" begin="720" end="1080" vehsPerHour="216" type="type1"/>
<flow id="f_17_3" route="f_17" departPos="random_free" begin="720" end="1080" vehsPerHour="96" type="type1"/>
<flow id="f_18_3" route="f_18" departPos="random_free" begin="720" end="1080" vehsPerHour="144" type="type1"/>
<flow id="f_19_3" route="f_19" departPos="random_free" begin="720" end="1080" vehsPerHour="72" type="type1"/>
<flow id="f_20_3" route="f_20" departPos="random_free" begin="720" end="1080" vehsPerHour="324" type="type1"/>
<flow id="f_21_3" route="f_21" departPos="random_free" begin="720" end="1080" vehsPerHour="96" type="type1"/>
<flow id="f_22_3" route="f_22" departPos="random_free" begin="720" end="1080" vehsPerHour="96" type="type1"/>
<flow id="f_23_3" route="f_23" departPos="random_free" begin="720" end="1080" vehsPerHour="54" type="type1"/>
<flow id="f_24_3" route="f_24" departPos="random_free" begin="720" end="1080" vehsPerHour="48" type="type1"/>
<flow id="f_25_3" route="f_25" departPos="random_free" begin="720" end="1080" vehsPerHour="324" type="type1"/>
<flow id="f_26_3" route="f_26" departPos="random_free" begin="720" end="1080" vehsPerHour="96" type="type1"/>
<flow id="f_1_4" route="f_1" departPos="random_free" begin="1080" end="1440" vehsPerHour="72" type="type1"/>
<flow id="f_2_4" route="f_2" departPos="random_free" begin="1080" end="1440" vehsPerHour="72" type="type1"/>
<flow id="f_3_4" route="f_3" departPos="random_free" begin="1080" end="1440" vehsPerHour="108" type="type1"/>
<flow id="f_4_4" route="f_4" departPos="random_free" begin="1080" end="1440" vehsPerHour="108" type="type1"/>
<flow id="f_5_4" route="f_5" departPos="random_free" begin="1080" end="1440" vehsPerHour="36" type="type1"/>
<flow id="f_6_4" route="f_6" departPos="random_free" begin="1080" end="1440" vehsPerHour="36" type="type1"/>
<flow id="f_7_4" route="f_7" departPos="random_free" begin="1080" end="1440" vehsPerHour="216" type="type1"/>
<flow id="f_8_4" route="f_8" departPos="random_free" begin="1080" end="1440" vehsPerHour="72" type="type1"/>
<flow id="f_9_4" route="f_9" departPos="random_free" begin="1080" end="1440" vehsPerHour="108" type="type1"/>
<flow id="f_10_4" route="f_10" departPos="random_free" begin="1080" end="1440" vehsPerHour="36" type="type1"/>
<flow id="f_11_4" route="f_11" departPos="random_free" begin="1080" end="1440" vehsPerHour="108" type="type1"/>
<flow id="f_12_4" route="f_12" departPos="random_free" begin="1080" end="1440" vehsPerHour="216" type="type1"/>
<flow id="f_13_4" route="f_13" departPos="random_free" begin="1080" end="1440" vehsPerHour="144" type="type1"/>
<flow id="f_14_4" route="f_14" departPos="random_free" begin="1080" end="1440" vehsPerHour="108" type="type1"/>
<flow id="f_15_4" route="f_15" departPos="random_free" begin="1080" end="1440" vehsPerHour="36" type="type1"/>
<flow id="f_16_4" route="f_16" departPos="random_free" begin="1080" end="1440" vehsPerHour="216" type="type1"/>
<flow id="f_17_4" route="f_17" departPos="random_free" begin="1080" end="1440" vehsPerHour="72" type="type1"/>
<flow id="f_18_4" route="f_18" departPos="random_free" begin="1080" end="1440" vehsPerHour="108" type="type1"/>
<flow id="f_19_4" route="f_19" departPos="random_free" begin="1080" end="1440" vehsPerHour="72" type="type1"/>
<flow id="f_20_4" route="f_20" departPos="random_free" begin="1080" end="1440" vehsPerHour="324" type="type1"/>
<flow id="f_21_4" route="f_21" departPos="random_free" begin="1080" end="1440" vehsPerHour="72" type="type1"/>
<flow id="f_22_4" route="f_22" departPos="random_free" begin="1080" end="1440" vehsPerHour="72" type="type1"/>
<flow id="f_23_4" route="f_23" departPos="random_free" begin="1080" end="1440" vehsPerHour="54" type="type1"/>
<flow id="f_24_4" route="f_24" departPos="random_free" begin="1080" end="1440" vehsPerHour="36" type="type1"/>
<flow id="f_25_4" route="f_25" departPos="random_free" begin="1080" end="1440" vehsPerHour="324" type="type1"/>
<flow id="f_26_4" route="f_26" departPos="random_free" begin="1080" end="1440" vehsPerHour="72" type="type1"/>
<flow id="f_1_5" route="f_1" departPos="random_free" begin="1440" end="1800" vehsPerHour="192" type="type1"/>
<flow id="f_2_5" route="f_2" departPos="random_free" begin="1440" end="1800" vehsPerHour="120" type="type1"/>
<flow id="f_3_5" route="f_3" departPos="random_free" begin="1440" end="1800" vehsPerHour="216" type="type1"/>
<flow id="f_4_5" route="f_4" departPos="random_free" begin="1440" end="1800" vehsPerHour="180" type="type1"/>
<flow id="f_5_5" route="f_5" departPos="random_free" begin="1440" end="1800" vehsPerHour="96" type="type1"/>
<flow id="f_6_5" route="f_6" departPos="random_free" begin="1440" end="1800" vehsPerHour="72" type="type1"/>
<flow id="f_7_5" route="f_7" departPos="random_free" begin="1440" end="1800" vehsPerHour="144" type="type1"/>
<flow id="f_8_5" route="f_8" departPos="random_free" begin="1440" end="1800" vehsPerHour="192" type="type1"/>
<flow id="f_9_5" route="f_9" departPos="random_free" begin="1440" end="1800" vehsPerHour="216" type="type1"/>
<flow id="f_10_5" route="f_10" departPos="random_free" begin="1440" end="1800" vehsPerHour="60" type="type1"/>
<flow id="f_11_5" route="f_11" departPos="random_free" begin="1440" end="1800" vehsPerHour="216" type="type1"/>
<flow id="f_12_5" route="f_12" departPos="random_free" begin="1440" end="1800" vehsPerHour="144" type="type1"/>
<flow id="f_13_5" route="f_13" departPos="random_free" begin="1440" end="1800" vehsPerHour="384" type="type1"/>
<flow id="f_14_5" route="f_14" departPos="random_free" begin="1440" end="1800" vehsPerHour="180" type="type1"/>
<flow id="f_15_5" route="f_15" departPos="random_free" begin="1440" end="1800" vehsPerHour="72" type="type1"/>
<flow id="f_16_5" route="f_16" departPos="random_free" begin="1440" end="1800" vehsPerHour="144" type="type1"/>
<flow id="f_17_5" route="f_17" departPos="random_free" begin="1440" end="1800" vehsPerHour="120" type="type1"/>
<flow id="f_18_5" route="f_18" departPos="random_free" begin="1440" end="1800" vehsPerHour="288" type="type1"/>
<flow id="f_19_5" route="f_19" departPos="random_free" begin="1440" end="1800" vehsPerHour="144" type="type1"/>
<flow id="f_20_5" route="f_20" departPos="random_free" begin="1440" end="1800" vehsPerHour="216" type="type1"/>
<flow id="f_21_5" route="f_21" departPos="random_free" begin="1440" end="1800" vehsPerHour="192" type="type1"/>
<flow id="f_22_5" route="f_22" departPos="random_free" begin="1440" end="1800" vehsPerHour="120" type="type1"/>
<flow id="f_23_5" route="f_23" departPos="random_free" begin="1440" end="1800" vehsPerHour="108" type="type1"/>
<flow id="f_24_5" route="f_24" departPos="random_free" begin="1440" end="1800" vehsPerHour="60" type="type1"/>
<flow id="f_25_5" route="f_25" departPos="random_free" begin="1440" end="1800" vehsPerHour="216" type="type1"/>
<flow id="f_26_5" route="f_26" departPos="random_free" begin="1440" end="1800" vehsPerHour="192" type="type1"/>
<flow id="f_1_6" route="f_1" departPos="random_free" begin="1800" end="2160" vehsPerHour="216" type="type1"/>
<flow id="f_2_6" route="f_2" departPos="random_free" begin="1800" end="2160" vehsPerHour="120" type="type1"/>
<flow id="f_3_6" route="f_3" departPos="random_free" begin="1800" end="2160" vehsPerHour="288" type="type1"/>
<flow id="f_4_6" route="f_4" departPos="random_free" begin="1800" end="2160" vehsPerHour="180" type="type1"/>
<flow id="f_5_6" route="f_5" departPos="random_free" begin="1800" end="2160" vehsPerHour="108" type="type1"/>
<flow id="f_6_6" route="f_6" departPos="random_free" begin="1800" end="2160" vehsPerHour="96" type="type1"/>
<flow id="f_7_6" route="f_7" departPos="random_free" begin="1800" end="2160" vehsPerHour="96" type="type1"/>
<flow id="f_8_6" route="f_8" departPos="random_free" begin="1800" end="2160" vehsPerHour="216" type="type1"/>
<flow id="f_9_6" route="f_9" departPos="random_free" begin="1800" end="2160" vehsPerHour="288" type="type1"/>
<flow id="f_10_6" route="f_10" departPos="random_free" begin="1800" end="2160" vehsPerHour="60" type="type1"/>
<flow id="f_11_6" route="f_11" departPos="random_free" begin="1800" end="2160" vehsPerHour="288" type="type1"/>
<flow id="f_12_6" route="f_12" departPos="random_free" begin="1800" end="2160" vehsPerHour="96" type="type1"/>
<flow id="f_13_6" route="f_13" departPos="random_free" begin="1800" end="2160" vehsPerHour="432" type="type1"/>
<flow id="f_14_6" route="f_14" departPos="random_free" begin="1800" end="2160" vehsPerHour="180" type="type1"/>
<flow id="f_15_6" route="f_15" departPos="random_free" begin="1800" end="2160" vehsPerHour="96" type="type1"/>
<flow id="f_16_6" route="f_16" departPos="random_free" begin="1800" end="2160" vehsPerHour="96" type="type1"/>
<flow id="f_17_6" route="f_17" departPos="random_free" begin="1800" end="2160" vehsPerHour="120" type="type1"/>
<flow id="f_18_6" route="f_18" departPos="random_free" begin="1800" end="2160" vehsPerHour="324" type="type1"/>
<flow id="f_19_6" route="f_19" departPos="random_free" begin="1800" end="2160" vehsPerHour="192" type="type1"/>
<flow id="f_20_6" route="f_20" departPos="random_free" begin="1800" end="2160" vehsPerHour="144" type="type1"/>
<flow id="f_21_6" route="f_21" departPos="random_free" begin="1800" end="2160" vehsPerHour="216" type="type1"/>
<flow id="f_22_6" route="f_22" departPos="random_free" begin="1800" end="2160" vehsPerHour="120" type="type1"/>
<flow id="f_23_6" route="f_23" departPos="random_free" begin="1800" end="2160" vehsPerHour="144" type="type1"/>
<flow id="f_24_6" route="f_24" departPos="random_free" begin="1800" end="2160" vehsPerHour="60" type="type1"/>
<flow id="f_25_6" route="f_25" departPos="random_free" begin="1800" end="2160" vehsPerHour="144" type="type1"/>
<flow id="f_26_6" route="f_26" departPos="random_free" begin="1800" end="2160" vehsPerHour="216" type="type1"/>
<flow id="f_1_7" route="f_1" departPos="random_free" begin="2160" end="2520" vehsPerHour="240" type="type1"/>
<flow id="f_2_7" route="f_2" departPos="random_free" begin="2160" end="2520" vehsPerHour="192" type="type1"/>
<flow id="f_3_7" route="f_3" departPos="random_free" begin="2160" end="2520" vehsPerHour="360" type="type1"/>
<flow id="f_4_7" route="f_4" departPos="random_free" begin="2160" end="2520" vehsPerHour="288" type="type1"/>
<flow id="f_5_7" route="f_5" departPos="random_free" begin="2160" end="2520" vehsPerHour="120" type="type1"/>
<flow id="f_6_7" route="f_6" departPos="random_free" begin="2160" end="2520" vehsPerHour="120" type="type1"/>
<flow id="f_7_7" route="f_7" departPos="random_free" begin="2160" end="2520" vehsPerHour="48" type="type1"/>
<flow id="f_8_7" route="f_8" departPos="random_free" begin="2160" end="2520" vehsPerHour="240" type="type1"/>
<flow id="f_9_7" route="f_9" departPos="random_free" begin="2160" end="2520" vehsPerHour="360" type="type1"/>
<flow id="f_10_7" route="f_10" departPos="random_free" begin="2160" end="2520" vehsPerHour="96" type="type1"/>
<flow id="f_11_7" route="f_11" departPos="random_free" begin="2160" end="2520" vehsPerHour="360" type="type1"/>
<flow id="f_12_7" route="f_12" departPos="random_free" begin="2160" end="2520" vehsPerHour="48" type="type1"/>
<flow id="f_13_7" route="f_13" departPos="random_free" begin="2160" end="2520" vehsPerHour="480" type="type1"/>
<flow id="f_14_7" route="f_14" departPos="random_free" begin="2160" end="2520" vehsPerHour="288" type="type1"/>
<flow id="f_15_7" route="f_15" departPos="random_free" begin="2160" end="2520" vehsPerHour="120" type="type1"/>
<flow id="f_16_7" route="f_16" departPos="random_free" begin="2160" end="2520" vehsPerHour="48" type="type1"/>
<flow id="f_17_7" route="f_17" departPos="random_free" begin="2160" end="2520" vehsPerHour="192" type="type1"/>
<flow id="f_18_7" route="f_18" departPos="random_free" begin="2160" end="2520" vehsPerHour="360" type="type1"/>
<flow id="f_19_7" route="f_19" departPos="random_free" begin="2160" end="2520" vehsPerHour="240" type="type1"/>
<flow id="f_20_7" route="f_20" departPos="random_free" begin="2160" end="2520" vehsPerHour="72" type="type1"/>
<flow id="f_21_7" route="f_21" departPos="random_free" begin="2160" end="2520" vehsPerHour="240" type="type1"/>
<flow id="f_22_7" route="f_22" departPos="random_free" begin="2160" end="2520" vehsPerHour="192" type="type1"/>
<flow id="f_23_7" route="f_23" departPos="random_free" begin="2160" end="2520" vehsPerHour="180" type="type1"/>
<flow id="f_24_7" route="f_24" departPos="random_free" begin="2160" end="2520" vehsPerHour="96" type="type1"/>
<flow id="f_25_7" route="f_25" departPos="random_free" begin="2160" end="2520" vehsPerHour="72" type="type1"/>
<flow id="f_26_7" route="f_26" departPos="random_free" begin="2160" end="2520" vehsPerHour="240" type="type1"/>
<flow id="f_1_8" route="f_1" departPos="random_free" begin="2520" end="2880" vehsPerHour="216" type="type1"/>
<flow id="f_2_8" route="f_2" departPos="random_free" begin="2520" end="2880" vehsPerHour="192" type="type1"/>
<flow id="f_3_8" route="f_3" departPos="random_free" begin="2520" end="2880" vehsPerHour="324" type="type1"/>
<flow id="f_4_8" route="f_4" departPos="random_free" begin="2520" end="2880" vehsPerHour="288" type="type1"/>
<flow id="f_5_8" route="f_5" departPos="random_free" begin="2520" end="2880" vehsPerHour="108" type="type1"/>
<flow id="f_6_8" route="f_6" departPos="random_free" begin="2520" end="2880" vehsPerHour="108" type="type1"/>
<flow id="f_7_8" route="f_7" departPos="random_free" begin="2520" end="2880" vehsPerHour="48" type="type1"/>
<flow id="f_8_8" route="f_8" departPos="random_free" begin="2520" end="2880" vehsPerHour="216" type="type1"/>
<flow id="f_9_8" route="f_9" departPos="random_free" begin="2520" end="2880" vehsPerHour="324" type="type1"/>
<flow id="f_10_8" route="f_10" departPos="random_free" begin="2520" end="2880" vehsPerHour="96" type="type1"/>
<flow id="f_11_8" route="f_11" departPos="random_free" begin="2520" end="2880" vehsPerHour="324" type="type1"/>
<flow id="f_12_8" route="f_12" departPos="random_free" begin="2520" end="2880" vehsPerHour="48" type="type1"/>
<flow id="f_13_8" route="f_13" departPos="random_free" begin="2520" end="2880" vehsPerHour="432" type="type1"/>
<flow id="f_14_8" route="f_14" departPos="random_free" begin="2520" end="2880" vehsPerHour="288" type="type1"/>
<flow id="f_15_8" route="f_15" departPos="random_free" begin="2520" end="2880" vehsPerHour="108" type="type1"/>
<flow id="f_16_8" route="f_16" departPos="random_free" begin="2520" end="2880" vehsPerHour="48" type="type1"/>
<flow id="f_17_8" route="f_17" departPos="random_free" begin="2520" end="2880" vehsPerHour="192" type="type1"/>
<flow id="f_18_8" route="f_18" departPos="random_free" begin="2520" end="2880" vehsPerHour="324" type="type1"/>
<flow id="f_19_8" route="f_19" departPos="random_free" begin="2520" end="2880" vehsPerHour="216" type="type1"/>
<flow id="f_20_8" route="f_20" departPos="random_free" begin="2520" end="2880" vehsPerHour="72" type="type1"/>
<flow id="f_21_8" route="f_21" departPos="random_free" begin="2520" end="2880" vehsPerHour="216" type="type1"/>
<flow id="f_22_8" route="f_22" departPos="random_free" begin="2520" end="2880" vehsPerHour="192" type="type1"/>
<flow id="f_23_8" route="f_23" departPos="random_free" begin="2520" end="2880" vehsPerHour="162" type="type1"/>
<flow id="f_24_8" route="f_24" departPos="random_free" begin="2520" end="2880" vehsPerHour="96" type="type1"/>
<flow id="f_25_8" route="f_25" departPos="random_free" begin="2520" end="2880" vehsPerHour="72" type="type1"/>
<flow id="f_26_8" route="f_26" departPos="random_free" begin="2520" end="2880" vehsPerHour="216" type="type1"/>
<flow id="f_1_9" route="f_1" departPos="random_free" begin="2880" end="3240" vehsPerHour="168" type="type1"/>
<flow id="f_2_9" route="f_2" departPos="random_free" begin="2880" end="3240" vehsPerHour="216" type="type1"/>
<flow id="f_3_9" route="f_3" departPos="random_free" begin="2880" end="3240" vehsPerHour="144" type="type1"/>
<flow id="f_4_9" route="f_4" departPos="random_free" begin="2880" end="3240" vehsPerHour="324" type="type1"/>
<flow id="f_5_9" route="f_5" departPos="random_free" begin="2880" end="3240" vehsPerHour="84" type="type1"/>
<flow id="f_6_9" route="f_6" departPos="random_free" begin="2880" end="3240" vehsPerHour="48" type="type1"/>
<flow id="f_7_9" route="f_7" departPos="random_free" begin="2880" end="3240" vehsPerHour="96" type="type1"/>
<flow id="f_8_9" route="f_8" departPos="random_free" begin="2880" end="3240" vehsPerHour="168" type="type1"/>
<flow id="f_9_9" route="f_9" departPos="random_free" begin="2880" end="3240" vehsPerHour="144" type="type1"/>
<flow id="f_10_9" route="f_10" departPos="random_free" begin="2880" end="3240" vehsPerHour="108" type="type1"/>
<flow id="f_11_9" route="f_11" departPos="random_free" begin="2880" end="3240" vehsPerHour="144" type="type1"/>
<flow id="f_12_9" route="f_12" departPos="random_free" begin="2880" end="3240" vehsPerHour="96" type="type1"/>
<flow id="f_13_9" route="f_13" departPos="random_free" begin="2880" end="3240" vehsPerHour="336" type="type1"/>
<flow id="f_14_9" route="f_14" departPos="random_free" begin="2880" end="3240" vehsPerHour="324" type="type1"/>
<flow id="f_15_9" route="f_15" departPos="random_free" begin="2880" end="3240" vehsPerHour="48" type="type1"/>
<flow id="f_16_9" route="f_16" departPos="random_free" begin="2880" end="3240" vehsPerHour="96" type="type1"/>
<flow id="f_17_9" route="f_17" departPos="random_free" begin="2880" end="3240" vehsPerHour="216" type="type1"/>
<flow id="f_18_9" route="f_18" departPos="random_free" begin="2880" end="3240" vehsPerHour="251" type="type1"/>
<flow id="f_19_9" route="f_19" departPos="random_free" begin="2880" end="3240" vehsPerHour="96" type="type1"/>
<flow id="f_20_9" route="f_20" departPos="random_free" begin="2880" end="3240" vehsPerHour="144" type="type1"/>
<flow id="f_21_9" route="f_21" departPos="random_free" begin="2880" end="3240" vehsPerHour="168" type="type1"/>
<flow id="f_22_9" route="f_22" departPos="random_free" begin="2880" end="3240" vehsPerHour="216" type="type1"/>
<flow id="f_23_9" route="f_23" departPos="random_free" begin="2880" end="3240" vehsPerHour="72" type="type1"/>
<flow id="f_24_9" route="f_24" departPos="random_free" begin="2880" end="3240" vehsPerHour="108" type="type1"/>
<flow id="f_25_9" route="f_25" departPos="random_free" begin="2880" end="3240" vehsPerHour="144" type="type1"/>
<flow id="f_26_9" route="f_26" departPos="random_free" begin="2880" end="3240" vehsPerHour="168" type="type1"/>
<flow id="f_1_10" route="f_1" departPos="random_free" begin="3240" end="3600" vehsPerHour="48" type="type1"/>
<flow id="f_2_10" route="f_2" departPos="random_free" begin="3240" end="3600" vehsPerHour="240" type="type1"/>
<flow id="f_3_10" route="f_3" departPos="random_free" begin="3240" end="3600" vehsPerHour="108" type="type1"/>
<flow id="f_4_10" route="f_4" departPos="random_free" begin="3240" end="3600" vehsPerHour="360" type="type1"/>
<flow id="f_5_10" route="f_5" departPos="random_free" begin="3240" end="3600" vehsPerHour="24" type="type1"/>
<flow id="f_6_10" route="f_6" departPos="random_free" begin="3240" end="3600" vehsPerHour="36" type="type1"/>
<flow id="f_7_10" route="f_7" departPos="random_free" begin="3240" end="3600" vehsPerHour="72" type="type1"/>
<flow id="f_8_10" route="f_8" departPos="random_free" begin="3240" end="3600" vehsPerHour="48" type="type1"/>
<flow id="f_9_10" route="f_9" departPos="random_free" begin="3240" end="3600" vehsPerHour="108" type="type1"/>
<flow id="f_10_10" route="f_10" departPos="random_free" begin="3240" end="3600" vehsPerHour="120" type="type1"/>
<flow id="f_11_10" route="f_11" departPos="random_free" begin="3240" end="3600" vehsPerHour="108" type="type1"/>
<flow id="f_12_10" route="f_12" departPos="random_free" begin="3240" end="3600" vehsPerHour="72" type="type1"/>
<flow id="f_13_10" route="f_13" departPos="random_free" begin="3240" end="3600" vehsPerHour="96" type="type1"/>
<flow id="f_14_10" route="f_14" departPos="random_free" begin="3240" end="3600" vehsPerHour="360" type="type1"/>
<flow id="f_15_10" route="f_15" departPos="random_free" begin="3240" end="3600" vehsPerHour="36" type="type1"/>
<flow id="f_16_10" route="f_16" departPos="random_free" begin="3240" end="3600" vehsPerHour="72" type="type1"/>
<flow id="f_17_10" route="f_17" departPos="random_free" begin="3240" end="3600" vehsPerHour="240" type="type1"/>
<flow id="f_18_10" route="f_18" departPos="random_free" begin="3240" end="3600" vehsPerHour="72" type="type1"/>
<flow id="f_19_10" route="f_19" departPos="random_free" begin="3240" end="3600" vehsPerHour="72" type="type1"/>