<connections>
  <connection from="n12_n3" to="n3_n1" fromLane="0" toLane="0"/>
  <connection from="n1_n3" to="n3_n12" fromLane="0" toLane="0"/>
  <connection from="e3_n3" to="n3_n4" fromLane="0" toLane="0"/>
  <connection from="n4_n3" to="n3_e3" fromLane="0" toLane="0"/>
  <connection from="n12_n3" to="n3_e3" fromLane="1" toLane="1"/>
  <connection from="n1_n3" to="n3_n4" fromLane="1" toLane="1"/>
  <connection from="e3_n3" to="n3_n1" fromLane="1" toLane="1"/>
  <connection from="n4_n3" to="n3_n12" fromLane="1" toLane="1"/>
  <connection from="n12_n3" to="n3_n4" fromLane="0" toLane="0"/>
  <connection from="n1_n3" to="n3_e3" fromLane="0" toLane="0"/>
  <connection from="e3_n3" to="n3_n12" fromLane="0" toLane="0"/>
  <connection from="n4_n3" to="n3_n1" fromLane="0" toLane="0"/>
  <connection from="n9_n5" to="n5_e5" fromLane="0" toLane="0"/>
  <connection from="e5_n5" to="n5_n9" fromLane="0" toLane="0"/>
  <connection from="n4_n5" to="n5_n6" fromLane="0" toLane="0"/>
  <connection from="n6_n5" to="n5_n4" fromLane="0" toLane="0"/>
  <connection from="n9_n5" to="n5_n4" fromLane="1" toLane="1"/>
  <connection from="e5_n5" to="n5_n6" fromLane="1" toLane="1"/>
  <connection from="n4_n5" to="n5_e5" fromLane="1" toLane="1"/>
  <connection from="n6_n5" to="n5_n9" fromLane="1" toLane="1"/>
  <connection from="n9_n5" to="n5_n6" fromLane="0" toLane="0"/>
  <connection from="e5_n5" to="n5_n4" fromLane="0" toLane="0"/>
  <connection from="n4_n5" to="n5_n9" fromLane="0" toLane="0"/>
  <connection from="n6_n5" to="n5_e5" fromLane="0" toLane="0"/>
  <connection from="n16_n8" to="n8_n6" fromLane="0" toLane="0"/>
  <connection from="n6_n8" to="n8_n16" fromLane="0" toLane="0"/>
  <connection from="n9_n8" to="n8_n7" fromLane="0" toLane="0"/>
  <connection from="n7_n8" to="n8_n9" fromLane="0" toLane="0"/>
  <connection from="n16_n8" to="n8_n9" fromLane="1" toLane="1"/>
  <connection from="n6_n8" to="n8_n7" fromLane="1" toLane="1"/>
  <connection from="n9_n8" to="n8_n6" fromLane="1" toLane="1"/>
  <connection from="n7_n8" to="n8_n16" fromLane="1" toLane="1"/>
  <connection from="n16_n8" to="n8_n7" fromLane="0" toLane="0"/>
  <connection from="n6_n8" to="n8_n9" fromLane="0" toLane="0"/>
  <connection from="n9_n8" to="n8_n16" fromLane="0" toLane="0"/>
  <connection from="n7_n8" to="n8_n6" fromLane="0" toLane="0"/>
  <connection from="n14_n11" to="n11_n4" fromLane="0" toLane="0"/>
  <connection from="n4_n11" to="n11_n14" fromLane="0" toLane="0"/>
  <connection from="n12_n11" to="n11_n10" fromLane="0" toLane="0"/>
  <connection from="n10_n11" to="n11_n12" fromLane="0" toLane="0"/>
  <connection from="n14_n11" to="n11_n12" fromLane="1" toLane="1"/>
  <connection from="n4_n11" to="n11_n10" fromLane="1" toLane="1"/>
  <connection from="n12_n11" to="n11_n4" fromLane="1" toLane="1"/>
  <connection from="n10_n11" to="n11_n14" fromLane="1" toLane="1"/>
  <connection from="n14_n11" to="n11_n10" fromLane="0" toLane="0"/>
  <connection from="n4_n11" to="n11_n12" fromLane="0" toLane="0"/>
  <connection from="n12_n11" to="n11_n14" fromLane="0" toLane="0"/>
  <connection from="n10_n11" to="n11_n4" fromLane="0" toLane="0"/>
  <connection from="n22_n15" to="n15_n10" fromLane="0" toLane="0"/>
  <connection from="n10_n15" to="n15_n22" fromLane="0" toLane="0"/>
  <connection from="n14_n15" to="n15_n19" fromLane="0" toLane="0"/>
  <connection from="n19_n15" to="n15_n14" fromLane="0" toLane="0"/>
  <connection from="n22_n15" to="n15_n14" fromLane="1" toLane="1"/>
  <connection from="n10_n15" to="n15_n19" fromLane="1" toLane="1"/>
  <connection from="n14_n15" to="n15_n10" fromLane="1" toLane="1"/>
  <connection from="n19_n15" to="n15_n22" fromLane="1" toLane="1"/>
  <connection from="n22_n15" to="n15_n19" fromLane="0" toLane="0"/>
  <connection from="n10_n15" to="n15_n14" fromLane="0" toLane="0"/>
  <connection from="n14_n15" to="n15_n22" fromLane="0" toLane="0"/>
  <connection from="n19_n15" to="n15_n10" fromLane="0" toLane="0"/>
  <connection from="n17_n16" to="n16_n8" fromLane="0" toLane="0"/>
  <connection from="n8_n16" to="n16_n17" fromLane="0" toLane="0"/>
  <connection from="n10_n16" to="n16_n18" fromLane="0" toLane="0"/>
  <connection from="n18_n16" to="n16_n10" fromLane="0" toLane="0"/>
  <connection from="n17_n16" to="n16_n10" fromLane="1" toLane="1"/>
  <connection from="n8_n16" to="n16_n18" fromLane="1" toLane="1"/>
  <connection from="n10_n16" to="n16_n8" fromLane="1" toLane="1"/>
  <connection from="n18_n16" to="n16_n17" fromLane="1" toLane="1"/>
  <connection from="n17_n16" to="n16_n18" fromLane="0" toLane="0"/>
  <connection from="n8_n16" to="n16_n10" fromLane="0" toLane="0"/>
  <connection from="n10_n16" to="n16_n17" fromLane="0" toLane="0"/>
  <connection from="n18_n16" to="n16_n8" fromLane="0" toLane="0"/>
  <connection from="n21_n20" to="n20_n19" fromLane="0" toLane="0"/>
  <connection from="n19_n20" to="n20_n21" fromLane="0" toLane="0"/>
  <connection from="n22_n20" to="n20_n18" fromLane="0" toLane="0"/>
  <connection from="n18_n20" to="n20_n22" fromLane="0" toLane="0"/>
  <connection from="n21_n20" to="n20_n22" fromLane="1" toLane="1"/>
  <connection from="n19_n20" to="n20_n18" fromLane="1" toLane="1"/>
  <connection from="n22_n20" to="n20_n19" fromLane="1" toLane="1"/>
  <connection from="n18_n20" to="n20_n21" fromLane="1" toLane="1"/>
  <connection from="n21_n20" to="n20_n18" fromLane="0" toLane="0"/>
  <connection from="n19_n20" to="n20_n22" fromLane="0" toLane="0"/>
  <connection from="n22_n20" to="n20_n21" fromLane="0" toLane="0"/>
  <connection from="n18_n20" to="n20_n19" fromLane="0" toLane="0"/>
  <connection from="n21_n22" to="n22_n15" fromLane="0" toLane="0"/>
  <connection from="n15_n22" to="n22_n21" fromLane="0" toLane="0"/>
  <connection from="n23_n22" to="n22_n20" fromLane="0" toLane="0"/>
  <connection from="n20_n22" to="n22_n23" fromLane="0" toLane="0"/>
  <connection from="n21_n22" to="n22_n23" fromLane="1" toLane="1"/>
  <connection from="n15_n22" to="n22_n20" fromLane="1" toLane="1"/>
  <connection from="n23_n22" to="n22_n15" fromLane="1" toLane="1"/>
  <connection from="n20_n22" to="n22_n21" fromLane="1" toLane="1"/>
  <connection from="n21_n22" to="n22_n20" fromLane="0" toLane="0"/>
  <connection from="n15_n22" to="n22_n23" fromLane="0" toLane="0"/>
  <connection from="n23_n22" to="n22_n21" fromLane="0" toLane="0"/>
  <connection from="n20_n22" to="n22_n15" fromLane="0" toLane="0"/>
  <connection from="n24_n23" to="n23_n14" fromLane="0" toLane="0"/>
  <connection from="n14_n23" to="n23_n24" fromLane="0" toLane="0"/>
  <connection from="e23_n23" to="n23_n22" fromLane="0" toLane="0"/>
  <connection from="n22_n23" to="n23_e23" fromLane="0" toLane="0"/>
  <connection from="n24_n23" to="n23_e23" fromLane="1" toLane="1"/>
  <connection from="n14_n23" to="n23_n22" fromLane="1" toLane="1"/>
  <connection from="e23_n23" to="n23_n14" fromLane="1" toLane="1"/>
  <connection from="n22_n23" to="n23_n24" fromLane="1" toLane="1"/>
  <connection from="n24_n23" to="n23_n22" fromLane="0" toLane="0"/>
  <connection from="n14_n23" to="n23_e23" fromLane="0" toLane="0"/>
  <connection from="e23_n23" to="n23_n24" fromLane="0" toLane="0"/>
  <connection from="n22_n23" to="n23_n14" fromLane="0" toLane="0"/>
  <connection from="n15_n10" to="n10_n9" fromLane="0" toLane="0"/>
  <connection from="n9_n10" to="n10_n15" fromLane="0" toLane="0"/>
  <connection from="n11_n10" to="n10_n16" fromLane="0" toLane="0"/>
  <connection from="n16_n10" to="n10_n11" fromLane="0" toLane="0"/>
  <connection from="n15_n10" to="n10_n11" fromLane="1" toLane="1"/>
  <connection from="n9_n10" to="n10_n16" fromLane="1" toLane="1"/>
  <connection from="n11_n10" to="n10_n9" fromLane="1" toLane="1"/>
  <connection from="n16_n10" to="n10_n15" fromLane="1" toLane="1"/>
  <connection from="n15_n10" to="n10_n16" fromLane="0" toLane="0"/>
  <connection from="n9_n10" to="n10_n11" fromLane="0" toLane="0"/>
  <connection from="n11_n10" to="n10_n15" fromLane="0" toLane="0"/>
  <connection from="n16_n10" to="n10_n9" fromLane="0" toLane="0"/>
  <connection from="n17_n10" to="n10_n9" fromLane="0" toLane="0"/>
  <connection from="n17_n10" to="n10_n11" fromLane="1" toLane="1"/>
  <connection from="n17_n10" to="n10_n16" fromLane="0" toLane="0"/>
  <connection from="n17_n10" to="n10_n15" fromLane="1" toLane="1"/>
  <connection from="n9_n10" to="n10_n17" fromLane="1" toLane="1"/>
  <connection from="n16_n10" to="n10_n17" fromLane="1" toLane="1"/>
  <connection from="n11_n10" to="n10_n17" fromLane="0" toLane="0"/>
  <connection from="n15_n10" to="n10_n17" fromLane="0" toLane="0"/>
  <connection from="n20_n18" to="n18_n7" fromLane="0" toLane="0"/>
  <connection from="n7_n18" to="n18_n20" fromLane="0" toLane="0"/>
  <connection from="n20_n18" to="n18_n7" fromLane="1" toLane="1"/>
  <connection from="n7_n18" to="n18_n20" fromLane="1" toLane="1"/>
  <connection from="n16_n18" to="n18_n7" fromLane="1" toLane="1"/>
  <connection from="n20_n18" to="n18_n16" fromLane="1" toLane="1"/>
  <connection from="n16_n18" to="n18_n16" fromLane="1" toLane="1"/>
  <connection from="n7_n18" to="n18_n7" fromLane="1" toLane="1"/>
  <connection from="n20_n18" to="n18_n20" fromLane="1" toLane="1"/>
  <connection from="n7_n18" to="n18_n16" fromLane="0" toLane="0"/>
  <connection from="n16_n18" to="n18_n20" fromLane="0" toLane="0"/>
  <connection from="n16_n18" to="n18_n20" fromLane="1" toLane="1"/>
</connections>
