<edges>
  <edge id="n1_n2" from="n1" to="n2" type="a"/>
  <edge id="n1_n3" from="n1" to="n3" type="a"/>
  <edge id="n2_n1" from="n2" to="n1" type="a"/>
  <edge id="n2_n6" from="n2" to="n6" type="a"/>
  <edge id="n3_n1" from="n3" to="n1" type="a"/>
  <edge id="n3_n4" from="n3" to="n4" type="a"/>
  <edge id="n3_n12" from="n3" to="n12" type="a"/>
  <edge id="n4_n3" from="n4" to="n3" type="a"/>
  <edge id="n4_n5" from="n4" to="n5" type="a"/>
  <edge id="n4_n11" from="n4" to="n11" type="a"/>
  <edge id="n5_n4" from="n5" to="n4" type="a"/>
  <edge id="n5_n6" from="n5" to="n6" type="a"/>
  <edge id="n5_n9" from="n5" to="n9" type="a"/>
  <edge id="n6_n2" from="n6" to="n2" type="a"/>
  <edge id="n6_n5" from="n6" to="n5" type="a"/>
  <edge id="n6_n8" from="n6" to="n8" type="a"/>
  <edge id="n7_n8" from="n7" to="n8" type="a"/>
  <edge id="n7_n18" from="n7" to="n18" type="a"/>
  <edge id="n8_n6" from="n8" to="n6" type="a"/>
  <edge id="n8_n7" from="n8" to="n7" type="a"/>
  <edge id="n8_n9" from="n8" to="n9" type="a"/>
  <edge id="n8_n16" from="n8" to="n16" type="a"/>
  <edge id="n9_n5" from="n9" to="n5" type="a"/>
  <edge id="n9_n8" from="n9" to="n8" type="a"/>
  <edge id="n9_n10" from="n9" to="n10" type="a"/>
  <edge id="n10_n9" from="n10" to="n9" type="a"/>
  <edge id="n10_n11" from="n10" to="n11" type="a"/>
  <edge id="n10_n15" from="n10" to="n15" type="a"/>
  <edge id="n10_n16" from="n10" to="n16" type="a"/>
  <edge id="n10_n17" from="n10" to="n17" type="a"/>
  <edge id="n11_n4" from="n11" to="n4" type="a"/>
  <edge id="n11_n10" from="n11" to="n10" type="a"/>
  <edge id="n11_n12" from="n11" to="n12" type="a"/>
  <edge id="n11_n14" from="n11" to="n14" type="a"/>
  <edge id="n12_n3" from="n12" to="n3" type="a"/>
  <edge id="n12_n11" from="n12" to="n11" type="a"/>
  <edge id="n12_n13" from="n12" to="n13" type="a"/>
  <edge id="n13_n12" from="n13" to="n12" type="a"/>
  <edge id="n13_n24" from="n13" to="n24" type="a"/>
  <edge id="n14_n11" from="n14" to="n11" type="a"/>
  <edge id="n14_n15" from="n14" to="n15" type="a"/>
  <edge id="n14_n23" from="n14" to="n23" type="a"/>
  <edge id="n15_n10" from="n15" to="n10" type="a"/>
  <edge id="n15_n14" from="n15" to="n14" type="a"/>
  <edge id="n15_n19" from="n15" to="n19" type="a"/>
  <edge id="n15_n22" from="n15" to="n22" type="a"/>
  <edge id="n16_n8" from="n16" to="n8" type="a"/>
  <edge id="n16_n10" from="n16" to="n10" type="a"/>
  <edge id="n16_n17" from="n16" to="n17" type="a"/>
  <edge id="n16_n18" from="n16" to="n18" type="a"/>
  <edge id="n17_n10" from="n17" to="n10" type="a"/>
  <edge id="n17_n16" from="n17" to="n16" type="a"/>
  <edge id="n17_n19" from="n17" to="n19" type="a"/>
  <edge id="n18_n7" from="n18" to="n7" type="a"/>
  <edge id="n18_n16" from="n18" to="n16" type="a"/>
  <edge id="n18_n20" from="n18" to="n20" type="a"/>
  <edge id="n19_n15" from="n19" to="n15" type="a"/>
  <edge id="n19_n17" from="n19" to="n17" type="a"/>
  <edge id="n19_n20" from="n19" to="n20" type="a"/>
  <edge id="n20_n18" from="n20" to="n18" type="a"/>
  <edge id="n20_n19" from="n20" to="n19" type="a"/>
  <edge id="n20_n21" from="n20" to="n21" type="a"/>
  <edge id="n20_n22" from="n20" to="n22" type="a"/>
  <edge id="n21_n20" from="n21" to="n20" type="a"/>
  <edge id="n21_n22" from="n21" to="n22" type="a"/>
  <edge id="n21_n24" from="n21" to="n24" type="a"/>
  <edge id="n22_n15" from="n22" to="n15" type="a"/>
  <edge id="n22_n20" from="n22" to="n20" type="a"/>
  <edge id="n22_n21" from="n22" to="n21" type="a"/>
  <edge id="n22_n23" from="n22" to="n23" type="a"/>
  <edge id="n23_n14" from="n23" to="n14" type="a"/>
  <edge id="n23_n22" from="n23" to="n22" type="a"/>
  <edge id="n23_n24" from="n23" to="n24" type="a"/>
  <edge id="n24_n13" from="n24" to="n13" type="a"/>
  <edge id="n24_n21" from="n24" to="n21" type="a"/>
  <edge id="n24_n23" from="n24" to="n23" type="a"/>
  <edge id="e1_n1" from="e1" to="n1" type="a"/>
  <edge id="e2_n2" from="e2" to="n2" type="a"/>
  <edge id="e3_n3" from="e3" to="n3" type="a"/>
  <edge id="e5_n5" from="e5" to="n5" type="a"/>
  <edge id="e7_n7" from="e7" to="n7" type="a"/>
  <edge id="e13_n13" from="e13" to="n13" type="a"/>
  <edge id="e23_n23" from="e23" to="n23" type="a"/>
  <edge id="n1_e1" from="n1" to="e1" type="a"/>
  <edge id="n2_e2" from="n2" to="e2" type="a"/>
  <edge id="n3_e3" from="n3" to="e3" type="a"/>
  <edge id="n5_e5" from="n5" to="e5" type="a"/>
  <edge id="n7_e7" from="n7" to="e7" type="a"/>
  <edge id="n13_e13" from="n13" to="e13" type="a"/>
  <edge id="n23_e23" from="n23" to="e23" type="a"/>
</edges>
