<nodes>
  <node id="n1" x="100.00" y="1020.00" type="priority"/>
  <node id="n2" x="640.00" y="1020.00" type="priority"/>
  <node id="n3" x="100.00" y="880.00" type="priority"/>
  <node id="n4" x="260.00" y="880.00" type="traffic_light"/>
  <node id="n5" x="440.00" y="880.00" type="priority"/>
  <node id="n6" x="640.00" y="880.00" type="traffic_light"/>
  <node id="n7" x="840.00" y="760.00" type="priority"/>
  <node id="n8" x="640.00" y="760.00" type="traffic_light"/>
  <node id="n9" x="440.00" y="760.00" type="traffic_light"/>
  <node id="n10" x="440.00" y="640.00" type="traffic_light"/>
  <node id="n11" x="260.00" y="640.00" type="traffic_light"/>
  <node id="n12" x="100.00" y="640.00" type="traffic_light"/>
  <node id="n13" x="100.00" y="100.00" type="priority"/>
  <node id="n14" x="260.00" y="380.00" type="traffic_light"/>
  <node id="n15" x="440.00" y="380.00" type="traffic_light"/>
  <node id="n16" x="640.00" y="640.00" type="traffic_light"/>
  <node id="n17" x="640.00" y="520.00" type="traffic_light"/>
  <node id="n18" x="840.00" y="640.00" type="traffic_light"/>
  <node id="n19" x="640.00" y="380.00" type="traffic_light"/>
  <node id="n20" x="640.00" y="100.00" type="traffic_light"/>
  <node id="n21" x="440.00" y="100.00" type="traffic_light"/>
  <node id="n22" x="440.00" y="260.00" type="traffic_light"/>
  <node id="n23" x="260.00" y="260.00" type="priority"/>
  <node id="n24" x="260.00" y="100.00" type="traffic_light"/>
  <node id="e1" x="-900.00" y="1020.00" type="priority"/>
  <node id="e2" x="1640.00" y="1020.00" type="priority"/>
  <node id="e3" x="-900.00" y="880.00" type="priority"/>
  <node id="e5" x="440.00" y="1880.00" type="priority"/>
  <node id="e7" x="840.00" y="1760.00" type="priority"/>
  <node id="e13" x="-900.00" y="100.00" type="priority"/>
  <node id="e23" x="-740.00" y="260.00" type="priority"/>
</nodes>
