<?xml version="1.0" encoding="UTF-8"?>

<!-- generated on 2023-05-26 00:04:46 by Eclipse SUMO netconvert Version 1.15.0
<configuration xmlns:xsi="http://www.w3.org/2001/XMLSchema-instance" xsi:noNamespaceSchemaLocation="http://sumo.dlr.de/xsd/netconvertConfiguration.xsd">

    <input>
        <node-files value="exp.nod.xml"/>
        <edge-files value="exp.edg.xml"/>
        <connection-files value="exp.con.xml"/>
        <tllogic-files value="exp.tll.xml"/>
        <type-files value="exp.typ.xml"/>
    </input>

    <output>
        <output-file value="exp.net.xml"/>
    </output>

</configuration>
-->

<net version="1.9" junctionCornerDetail="5" limitTurnSpeed="5.50" xmlns:xsi="http://www.w3.org/2001/XMLSchema-instance" xsi:noNamespaceSchemaLocation="http://sumo.dlr.de/xsd/net_file.xsd">

    <location netOffset="900.00,-100.00" convBoundary="0.00,0.00,2540.00,1780.00" origBoundary="-900.00,100.00,1640.00,1880.00" projParameter="!"/>

    <type id="a" priority="1" numLanes="2" speed="20.00"/>

    <edge id=":e1_0" function="internal">
        <lane id=":e1_0_0" index="0" speed="3.65" length="4.67" shape="0.00,921.60 -1.20,920.80 -1.60,920.00 -1.20,919.20 0.00,918.40"/>
    </edge>
    <edge id=":e13_0" function="internal">
        <lane id=":e13_0_0" index="0" speed="3.65" length="4.67" shape="0.00,1.60 -1.20,0.80 -1.60,0.00 -1.20,-0.80 0.00,-1.60"/>
    </edge>
    <edge id=":e2_0" function="internal">
        <lane id=":e2_0_0" index="0" speed="3.65" length="4.67" shape="2540.00,918.40 2541.20,919.20 2541.60,920.00 2541.20,920.80 2540.00,921.60"/>
    </edge>
    <edge id=":e23_0" function="internal">
        <lane id=":e23_0_0" index="0" speed="3.65" length="4.67" shape="160.00,161.60 158.80,160.80 158.40,160.00 158.80,159.20 160.00,158.40"/>
    </edge>
    <edge id=":e3_0" function="internal">
        <lane id=":e3_0_0" index="0" speed="3.65" length="4.67" shape="0.00,781.60 -1.20,780.80 -1.60,780.00 -1.20,779.20 0.00,778.40"/>
    </edge>
    <edge id=":e5_0" function="internal">
        <lane id=":e5_0_0" index="0" speed="3.65" length="4.67" shape="1341.60,1780.00 1340.80,1781.20 1340.00,1781.60 1339.20,1781.20 1338.40,1780.00"/>
    </edge>
    <edge id=":e7_0" function="internal">
        <lane id=":e7_0_0" index="0" speed="3.65" length="4.67" shape="1741.60,1660.00 1740.80,1661.20 1740.00,1661.60 1739.20,1661.20 1738.40,1660.00"/>
    </edge>
    <edge id=":n1_0" function="internal">
        <lane id=":n1_0_0" index="0" speed="20.00" length="20.80" shape="1010.40,924.80 989.60,924.80"/>
        <lane id=":n1_0_1" index="1" speed="20.00" length="20.80" shape="1010.40,921.60 989.60,921.60"/>
    </edge>
    <edge id=":n1_2" function="internal">
        <lane id=":n1_2_0" index="0" speed="9.26" length="5.01" shape="1010.40,921.60 1005.44,920.89"/>
    </edge>
    <edge id=":n1_3" function="internal">
        <lane id=":n1_3_0" index="0" speed="3.65" length="1.44" shape="1010.40,921.60 1009.20,920.80"/>
    </edge>
    <edge id=":n1_11" function="internal">
        <lane id=":n1_11_0" index="0" speed="9.26" length="14.34" shape="1005.44,920.89 1005.15,920.85 1001.40,918.60 999.15,914.85 998.40,909.60"/>
    </edge>
    <edge id=":n1_12" function="internal">
        <lane id=":n1_12_0" index="0" speed="3.65" length="3.23" shape="1009.20,920.80 1008.80,920.00 1009.20,919.20 1010.40,918.40"/>
    </edge>
    <edge id=":n1_4" function="internal">
        <lane id=":n1_4_0" index="0" speed="6.51" length="9.03" shape="1004.80,909.60 1005.15,912.05 1006.20,913.80 1007.95,914.85 1010.40,915.20"/>
    </edge>
    <edge id=":n1_5" function="internal">
        <lane id=":n1_5_0" index="0" speed="9.26" length="19.35" shape="1001.60,909.60 1000.85,914.85 998.60,918.60 994.85,920.85 989.60,921.60"/>
    </edge>
    <edge id=":n1_6" function="internal">
        <lane id=":n1_6_0" index="0" speed="3.65" length="4.67" shape="1001.60,909.60 1000.80,910.80 1000.00,911.20 999.20,910.80 998.40,909.60"/>
    </edge>
    <edge id=":n1_7" function="internal">
        <lane id=":n1_7_0" index="0" speed="6.51" length="9.03" shape="989.60,915.20 992.05,914.85 993.80,913.80 994.85,912.05 995.20,909.60"/>
    </edge>
    <edge id=":n1_8" function="internal">
        <lane id=":n1_8_0" index="0" speed="20.00" length="20.80" shape="989.60,915.20 1010.40,915.20"/>
        <lane id=":n1_8_1" index="1" speed="20.00" length="20.80" shape="989.60,918.40 1010.40,918.40"/>
    </edge>
    <edge id=":n1_10" function="internal">
        <lane id=":n1_10_0" index="0" speed="3.65" length="1.44" shape="989.60,918.40 990.80,919.20"/>
    </edge>
    <edge id=":n1_13" function="internal">
        <lane id=":n1_13_0" index="0" speed="3.65" length="3.23" shape="990.80,919.20 991.20,920.00 990.80,920.80 989.60,921.60"/>
    </edge>
    <edge id=":n10_0" function="internal">
        <lane id=":n10_0_0" index="0" speed="6.51" length="9.03" shape="1335.20,550.40 1334.85,547.95 1333.80,546.20 1332.05,545.15 1329.60,544.80"/>
    </edge>
    <edge id=":n10_1" function="internal">
        <lane id=":n10_1_0" index="0" speed="20.00" length="25.70" shape="1335.20,550.40 1335.20,524.70"/>
    </edge>
    <edge id=":n10_2" function="internal">
        <lane id=":n10_2_0" index="0" speed="16.27" length="36.37" shape="1338.40,550.40 1339.90,544.55 1344.41,538.32 1351.91,531.69 1362.42,524.68"/>
    </edge>
    <edge id=":n10_3" function="internal">
        <lane id=":n10_3_0" index="0" speed="12.12" length="33.94" shape="1338.40,550.40 1340.19,545.15 1345.58,541.40 1354.55,539.15 1367.11,538.40"/>
    </edge>
    <edge id=":n10_4" function="internal">
        <lane id=":n10_4_0" index="0" speed="10.29" length="24.17" shape="1367.11,544.80 1357.35,545.15 1350.38,546.20 1346.19,547.95 1344.80,550.40"/>
    </edge>
    <edge id=":n10_5" function="internal">
        <lane id=":n10_5_0" index="0" speed="20.00" length="37.51" shape="1367.11,544.80 1329.60,544.80"/>
    </edge>
    <edge id=":n10_6" function="internal">
        <lane id=":n10_6_0" index="0" speed="12.69" length="37.27" shape="1367.11,541.60 1354.55,540.54 1345.58,537.37 1340.19,532.09 1338.40,524.70"/>
    </edge>
    <edge id=":n10_7" function="internal">
        <lane id=":n10_7_0" index="0" speed="7.77" length="23.83" shape="1367.11,541.60 1361.08,539.66 1357.97,535.02 1358.25,529.44 1362.42,524.68"/>
    </edge>
    <edge id=":n10_8" function="internal">
        <lane id=":n10_8_0" index="0" speed="5.51" length="11.05" shape="1365.71,530.17 1362.66,532.37 1361.87,533.94 1363.35,534.89 1367.11,535.20"/>
    </edge>
    <edge id=":n10_9" function="internal">
        <lane id=":n10_9_0" index="0" speed="14.77" length="29.89" shape="1365.71,530.17 1356.56,536.14 1350.03,541.50 1346.11,546.25 1344.80,550.40"/>
    </edge>
    <edge id=":n10_10" function="internal">
        <lane id=":n10_10_0" index="0" speed="20.00" length="37.57" shape="1364.07,527.43 1356.47,531.81 1347.37,536.44 1338.00,540.11 1329.60,541.60"/>
    </edge>
    <edge id=":n10_11" function="internal">
        <lane id=":n10_11_0" index="0" speed="10.12" length="32.95" shape="1364.07,527.43 1354.87,532.13 1346.62,534.21 1340.68,532.21 1338.40,524.70"/>
    </edge>
    <edge id=":n10_12" function="internal">
        <lane id=":n10_12_0" index="0" speed="7.77" length="18.82" shape="1344.80,524.70 1345.80,527.08 1348.79,527.42 1353.79,525.70 1360.77,521.94"/>
    </edge>
    <edge id=":n10_13" function="internal">
        <lane id=":n10_13_0" index="0" speed="10.88" length="27.14" shape="1344.80,524.70 1346.19,529.29 1350.38,532.57 1357.35,534.54 1367.11,535.20"/>
    </edge>
    <edge id=":n10_14" function="internal">
        <lane id=":n10_14_0" index="0" speed="20.00" length="25.70" shape="1344.80,524.70 1344.80,550.40"/>
    </edge>
    <edge id=":n10_15" function="internal">
        <lane id=":n10_15_0" index="0" speed="10.14" length="23.44" shape="1341.60,524.70 1340.85,532.09 1338.60,537.37 1334.85,540.54 1329.60,541.60"/>
    </edge>
    <edge id=":n10_16" function="internal">
        <lane id=":n10_16_0" index="0" speed="7.74" length="13.23" shape="1329.60,535.20 1332.05,534.54 1333.80,532.57 1334.85,529.29 1335.20,524.70"/>
    </edge>
    <edge id=":n10_17" function="internal">
        <lane id=":n10_17_0" index="0" speed="20.00" length="34.21" shape="1329.60,535.20 1337.48,533.85 1345.72,530.50 1353.69,526.18 1360.77,521.94"/>
    </edge>
    <edge id=":n10_18" function="internal">
        <lane id=":n10_18_0" index="0" speed="20.00" length="37.51" shape="1329.60,535.20 1367.11,535.20"/>
    </edge>
    <edge id=":n10_19" function="internal">
        <lane id=":n10_19_0" index="0" speed="9.26" length="19.35" shape="1329.60,538.40 1334.85,539.15 1338.60,541.40 1340.85,545.15 1341.60,550.40"/>
    </edge>
    <edge id=":n11_0" function="internal">
        <lane id=":n11_0_0" index="0" speed="6.51" length="9.03" shape="1155.20,550.40 1154.85,547.95 1153.80,546.20 1152.05,545.15 1149.60,544.80"/>
    </edge>
    <edge id=":n11_1" function="internal">
        <lane id=":n11_1_0" index="0" speed="20.00" length="20.80" shape="1155.20,550.40 1155.20,529.60"/>
    </edge>
    <edge id=":n11_2" function="internal">
        <lane id=":n11_2_0" index="0" speed="9.26" length="19.35" shape="1158.40,550.40 1159.15,545.15 1161.40,541.40 1165.15,539.15 1170.40,538.40"/>
    </edge>
    <edge id=":n11_3" function="internal">
        <lane id=":n11_3_0" index="0" speed="6.51" length="9.03" shape="1170.40,544.80 1167.95,545.15 1166.20,546.20 1165.15,547.95 1164.80,550.40"/>
    </edge>
    <edge id=":n11_4" function="internal">
        <lane id=":n11_4_0" index="0" speed="20.00" length="20.80" shape="1170.40,544.80 1149.60,544.80"/>
    </edge>
    <edge id=":n11_5" function="internal">
        <lane id=":n11_5_0" index="0" speed="9.26" length="19.35" shape="1170.40,541.60 1165.15,540.85 1161.40,538.60 1159.15,534.85 1158.40,529.60"/>
    </edge>
    <edge id=":n11_6" function="internal">
        <lane id=":n11_6_0" index="0" speed="6.51" length="9.03" shape="1164.80,529.60 1165.15,532.05 1166.20,533.80 1167.95,534.85 1170.40,535.20"/>
    </edge>
    <edge id=":n11_7" function="internal">
        <lane id=":n11_7_0" index="0" speed="20.00" length="20.80" shape="1164.80,529.60 1164.80,550.40"/>
    </edge>
    <edge id=":n11_8" function="internal">
        <lane id=":n11_8_0" index="0" speed="9.26" length="19.35" shape="1161.60,529.60 1160.85,534.85 1158.60,538.60 1154.85,540.85 1149.60,541.60"/>
    </edge>
    <edge id=":n11_9" function="internal">
        <lane id=":n11_9_0" index="0" speed="6.51" length="9.03" shape="1149.60,535.20 1152.05,534.85 1153.80,533.80 1154.85,532.05 1155.20,529.60"/>
    </edge>
    <edge id=":n11_10" function="internal">
        <lane id=":n11_10_0" index="0" speed="20.00" length="20.80" shape="1149.60,535.20 1170.40,535.20"/>
    </edge>
    <edge id=":n11_11" function="internal">
        <lane id=":n11_11_0" index="0" speed="9.26" length="19.35" shape="1149.60,538.40 1154.85,539.15 1158.60,541.40 1160.85,545.15 1161.60,550.40"/>
    </edge>
    <edge id=":n12_0" function="internal">
        <lane id=":n12_0_0" index="0" speed="20.00" length="20.80" shape="995.20,550.40 995.20,529.60"/>
        <lane id=":n12_0_1" index="1" speed="20.00" length="20.80" shape="998.40,550.40 998.40,529.60"/>
    </edge>
    <edge id=":n12_2" function="internal">
        <lane id=":n12_2_0" index="0" speed="9.26" length="5.01" shape="998.40,550.40 999.11,545.44"/>
    </edge>
    <edge id=":n12_3" function="internal">
        <lane id=":n12_3_0" index="0" speed="3.65" length="1.44" shape="998.40,550.40 999.20,549.20"/>
    </edge>
    <edge id=":n12_12" function="internal">
        <lane id=":n12_12_0" index="0" speed="9.26" length="14.34" shape="999.11,545.44 999.15,545.15 1001.40,541.40 1005.15,539.15 1010.40,538.40"/>
    </edge>
    <edge id=":n12_13" function="internal">
        <lane id=":n12_13_0" index="0" speed="3.65" length="3.23" shape="999.20,549.20 1000.00,548.80 1000.80,549.20 1001.60,550.40"/>
    </edge>
    <edge id=":n12_4" function="internal">
        <lane id=":n12_4_0" index="0" speed="6.51" length="9.03" shape="1010.40,544.80 1007.95,545.15 1006.20,546.20 1005.15,547.95 1004.80,550.40"/>
        <lane id=":n12_4_1" index="1" speed="8.00" length="14.19" shape="1010.40,541.60 1006.55,542.15 1003.80,543.80 1002.15,546.55 1001.60,550.40"/>
    </edge>
    <edge id=":n12_6" function="internal">
        <lane id=":n12_6_0" index="0" speed="9.26" length="19.35" shape="1010.40,541.60 1005.15,540.85 1001.40,538.60 999.15,534.85 998.40,529.60"/>
    </edge>
    <edge id=":n12_7" function="internal">
        <lane id=":n12_7_0" index="0" speed="3.65" length="2.34" shape="1010.40,541.60 1009.20,540.80 1008.80,540.00"/>
    </edge>
    <edge id=":n12_14" function="internal">
        <lane id=":n12_14_0" index="0" speed="3.65" length="2.34" shape="1008.80,540.00 1009.20,539.20 1010.40,538.40"/>
    </edge>
    <edge id=":n12_8" function="internal">
        <lane id=":n12_8_0" index="0" speed="6.51" length="9.03" shape="1004.80,529.60 1005.15,532.05 1006.20,533.80 1007.95,534.85 1010.40,535.20"/>
    </edge>
    <edge id=":n12_9" function="internal">
        <lane id=":n12_9_0" index="0" speed="20.00" length="20.80" shape="1004.80,529.60 1004.80,550.40"/>
        <lane id=":n12_9_1" index="1" speed="20.00" length="20.80" shape="1001.60,529.60 1001.60,550.40"/>
    </edge>
    <edge id=":n12_11" function="internal">
        <lane id=":n12_11_0" index="0" speed="3.65" length="1.44" shape="1001.60,529.60 1000.80,530.80"/>
    </edge>
    <edge id=":n12_15" function="internal">
        <lane id=":n12_15_0" index="0" speed="3.65" length="3.23" shape="1000.80,530.80 1000.00,531.20 999.20,530.80 998.40,529.60"/>
    </edge>
    <edge id=":n13_0" function="internal">
        <lane id=":n13_0_0" index="0" speed="6.51" length="9.03" shape="995.20,10.40 994.85,7.95 993.80,6.20 992.05,5.15 989.60,4.80"/>
    </edge>
    <edge id=":n13_1" function="internal">
        <lane id=":n13_1_0" index="0" speed="9.26" length="19.35" shape="998.40,10.40 999.15,5.15 1001.40,1.40 1005.15,-0.85 1010.40,-1.60"/>
    </edge>
    <edge id=":n13_2" function="internal">
        <lane id=":n13_2_0" index="0" speed="3.65" length="4.67" shape="998.40,10.40 999.20,9.20 1000.00,8.80 1000.80,9.20 1001.60,10.40"/>
    </edge>
    <edge id=":n13_3" function="internal">
        <lane id=":n13_3_0" index="0" speed="6.51" length="9.03" shape="1010.40,4.80 1007.95,5.15 1006.20,6.20 1005.15,7.95 1004.80,10.40"/>
    </edge>
    <edge id=":n13_4" function="internal">
        <lane id=":n13_4_0" index="0" speed="20.00" length="20.80" shape="1010.40,4.80 989.60,4.80"/>
        <lane id=":n13_4_1" index="1" speed="20.00" length="20.80" shape="1010.40,1.60 989.60,1.60"/>
    </edge>
    <edge id=":n13_6" function="internal">
        <lane id=":n13_6_0" index="0" speed="3.65" length="1.44" shape="1010.40,1.60 1009.20,0.80"/>
    </edge>
    <edge id=":n13_11" function="internal">
        <lane id=":n13_11_0" index="0" speed="3.65" length="3.23" shape="1009.20,0.80 1008.80,0.00 1009.20,-0.80 1010.40,-1.60"/>
    </edge>
    <edge id=":n13_7" function="internal">
        <lane id=":n13_7_0" index="0" speed="20.00" length="20.80" shape="989.60,-4.80 1010.40,-4.80"/>
        <lane id=":n13_7_1" index="1" speed="20.00" length="20.80" shape="989.60,-1.60 1010.40,-1.60"/>
    </edge>
    <edge id=":n13_9" function="internal">
        <lane id=":n13_9_0" index="0" speed="9.26" length="5.01" shape="989.60,-1.60 994.56,-0.89"/>
    </edge>
    <edge id=":n13_10" function="internal">
        <lane id=":n13_10_0" index="0" speed="3.65" length="1.44" shape="989.60,-1.60 990.80,-0.80"/>
    </edge>
    <edge id=":n13_12" function="internal">
        <lane id=":n13_12_0" index="0" speed="9.26" length="14.34" shape="994.56,-0.89 994.85,-0.85 998.60,1.40 1000.85,5.15 1001.60,10.40"/>
    </edge>
    <edge id=":n13_13" function="internal">
        <lane id=":n13_13_0" index="0" speed="3.65" length="3.23" shape="990.80,-0.80 991.20,0.00 990.80,0.80 989.60,1.60"/>
    </edge>
    <edge id=":n14_0" function="internal">
        <lane id=":n14_0_0" index="0" speed="20.00" length="20.80" shape="1155.20,290.40 1155.20,269.60"/>
        <lane id=":n14_0_1" index="1" speed="20.00" length="20.80" shape="1158.40,290.40 1158.40,269.60"/>
    </edge>
    <edge id=":n14_2" function="internal">
        <lane id=":n14_2_0" index="0" speed="9.26" length="5.01" shape="1158.40,290.40 1159.11,285.44"/>
    </edge>
    <edge id=":n14_3" function="internal">
        <lane id=":n14_3_0" index="0" speed="3.65" length="1.44" shape="1158.40,290.40 1159.20,289.20"/>
    </edge>
    <edge id=":n14_12" function="internal">
        <lane id=":n14_12_0" index="0" speed="9.26" length="14.34" shape="1159.11,285.44 1159.15,285.15 1161.40,281.40 1165.15,279.15 1170.40,278.40"/>
    </edge>
    <edge id=":n14_13" function="internal">
        <lane id=":n14_13_0" index="0" speed="3.65" length="3.23" shape="1159.20,289.20 1160.00,288.80 1160.80,289.20 1161.60,290.40"/>
    </edge>
    <edge id=":n14_4" function="internal">
        <lane id=":n14_4_0" index="0" speed="6.51" length="9.03" shape="1170.40,284.80 1167.95,285.15 1166.20,286.20 1165.15,287.95 1164.80,290.40"/>
        <lane id=":n14_4_1" index="1" speed="8.00" length="14.19" shape="1170.40,281.60 1166.55,282.15 1163.80,283.80 1162.15,286.55 1161.60,290.40"/>
    </edge>
    <edge id=":n14_6" function="internal">
        <lane id=":n14_6_0" index="0" speed="9.26" length="19.35" shape="1170.40,281.60 1165.15,280.85 1161.40,278.60 1159.15,274.85 1158.40,269.60"/>
    </edge>
    <edge id=":n14_7" function="internal">
        <lane id=":n14_7_0" index="0" speed="3.65" length="2.34" shape="1170.40,281.60 1169.20,280.80 1168.80,280.00"/>
    </edge>
    <edge id=":n14_14" function="internal">
        <lane id=":n14_14_0" index="0" speed="3.65" length="2.34" shape="1168.80,280.00 1169.20,279.20 1170.40,278.40"/>
    </edge>
    <edge id=":n14_8" function="internal">
        <lane id=":n14_8_0" index="0" speed="6.51" length="9.03" shape="1164.80,269.60 1165.15,272.05 1166.20,273.80 1167.95,274.85 1170.40,275.20"/>
    </edge>
    <edge id=":n14_9" function="internal">
        <lane id=":n14_9_0" index="0" speed="20.00" length="20.80" shape="1164.80,269.60 1164.80,290.40"/>
        <lane id=":n14_9_1" index="1" speed="20.00" length="20.80" shape="1161.60,269.60 1161.60,290.40"/>
    </edge>
    <edge id=":n14_11" function="internal">
        <lane id=":n14_11_0" index="0" speed="3.65" length="1.44" shape="1161.60,269.60 1160.80,270.80"/>
    </edge>
    <edge id=":n14_15" function="internal">
        <lane id=":n14_15_0" index="0" speed="3.65" length="3.23" shape="1160.80,270.80 1160.00,271.20 1159.20,270.80 1158.40,269.60"/>
    </edge>
    <edge id=":n15_0" function="internal">
        <lane id=":n15_0_0" index="0" speed="6.51" length="9.03" shape="1335.20,290.40 1334.85,287.95 1333.80,286.20 1332.05,285.15 1329.60,284.80"/>
    </edge>
    <edge id=":n15_1" function="internal">
        <lane id=":n15_1_0" index="0" speed="20.00" length="20.80" shape="1335.20,290.40 1335.20,269.60"/>
    </edge>
    <edge id=":n15_2" function="internal">
        <lane id=":n15_2_0" index="0" speed="9.26" length="19.35" shape="1338.40,290.40 1339.15,285.15 1341.40,281.40 1345.15,279.15 1350.40,278.40"/>
    </edge>
    <edge id=":n15_3" function="internal">
        <lane id=":n15_3_0" index="0" speed="6.51" length="9.03" shape="1350.40,284.80 1347.95,285.15 1346.20,286.20 1345.15,287.95 1344.80,290.40"/>
    </edge>
    <edge id=":n15_4" function="internal">
        <lane id=":n15_4_0" index="0" speed="20.00" length="20.80" shape="1350.40,284.80 1329.60,284.80"/>
    </edge>
    <edge id=":n15_5" function="internal">
        <lane id=":n15_5_0" index="0" speed="9.26" length="19.35" shape="1350.40,281.60 1345.15,280.85 1341.40,278.60 1339.15,274.85 1338.40,269.60"/>
    </edge>
    <edge id=":n15_6" function="internal">
        <lane id=":n15_6_0" index="0" speed="6.51" length="9.03" shape="1344.80,269.60 1345.15,272.05 1346.20,273.80 1347.95,274.85 1350.40,275.20"/>
    </edge>
    <edge id=":n15_7" function="internal">
        <lane id=":n15_7_0" index="0" speed="20.00" length="20.80" shape="1344.80,269.60 1344.80,290.40"/>
    </edge>
    <edge id=":n15_8" function="internal">
        <lane id=":n15_8_0" index="0" speed="9.26" length="19.35" shape="1341.60,269.60 1340.85,274.85 1338.60,278.60 1334.85,280.85 1329.60,281.60"/>
    </edge>
    <edge id=":n15_9" function="internal">
        <lane id=":n15_9_0" index="0" speed="6.51" length="9.03" shape="1329.60,275.20 1332.05,274.85 1333.80,273.80 1334.85,272.05 1335.20,269.60"/>
    </edge>
    <edge id=":n15_10" function="internal">
        <lane id=":n15_10_0" index="0" speed="20.00" length="20.80" shape="1329.60,275.20 1350.40,275.20"/>
    </edge>
    <edge id=":n15_11" function="internal">
        <lane id=":n15_11_0" index="0" speed="9.26" length="19.35" shape="1329.60,278.40 1334.85,279.15 1338.60,281.40 1340.85,285.15 1341.60,290.40"/>
    </edge>
    <edge id=":n16_0" function="internal">
        <lane id=":n16_0_0" index="0" speed="6.51" length="9.03" shape="1535.20,550.40 1534.85,547.95 1533.80,546.20 1532.05,545.15 1529.60,544.80"/>
    </edge>
    <edge id=":n16_1" function="internal">
        <lane id=":n16_1_0" index="0" speed="20.00" length="20.80" shape="1535.20,550.40 1535.20,529.60"/>
    </edge>
    <edge id=":n16_2" function="internal">
        <lane id=":n16_2_0" index="0" speed="9.26" length="19.35" shape="1538.40,550.40 1539.15,545.15 1541.40,541.40 1545.15,539.15 1550.40,538.40"/>
    </edge>
    <edge id=":n16_3" function="internal">
        <lane id=":n16_3_0" index="0" speed="6.51" length="9.03" shape="1550.40,544.80 1547.95,545.15 1546.20,546.20 1545.15,547.95 1544.80,550.40"/>
    </edge>
    <edge id=":n16_4" function="internal">
        <lane id=":n16_4_0" index="0" speed="20.00" length="20.80" shape="1550.40,544.80 1529.60,544.80"/>
    </edge>
    <edge id=":n16_5" function="internal">
        <lane id=":n16_5_0" index="0" speed="9.26" length="19.35" shape="1550.40,541.60 1545.15,540.85 1541.40,538.60 1539.15,534.85 1538.40,529.60"/>
    </edge>
    <edge id=":n16_6" function="internal">
        <lane id=":n16_6_0" index="0" speed="6.51" length="9.03" shape="1544.80,529.60 1545.15,532.05 1546.20,533.80 1547.95,534.85 1550.40,535.20"/>
    </edge>
    <edge id=":n16_7" function="internal">
        <lane id=":n16_7_0" index="0" speed="20.00" length="20.80" shape="1544.80,529.60 1544.80,550.40"/>
    </edge>
    <edge id=":n16_8" function="internal">
        <lane id=":n16_8_0" index="0" speed="9.26" length="19.35" shape="1541.60,529.60 1540.85,534.85 1538.60,538.60 1534.85,540.85 1529.60,541.60"/>
    </edge>
    <edge id=":n16_9" function="internal">
        <lane id=":n16_9_0" index="0" speed="6.51" length="9.03" shape="1529.60,535.20 1532.05,534.85 1533.80,533.80 1534.85,532.05 1535.20,529.60"/>
    </edge>
    <edge id=":n16_10" function="internal">
        <lane id=":n16_10_0" index="0" speed="20.00" length="20.80" shape="1529.60,535.20 1550.40,535.20"/>
    </edge>
    <edge id=":n16_11" function="internal">
        <lane id=":n16_11_0" index="0" speed="9.26" length="19.35" shape="1529.60,538.40 1534.85,539.15 1538.60,541.40 1540.85,545.15 1541.60,550.40"/>
    </edge>
    <edge id=":n17_0" function="internal">
        <lane id=":n17_0_0" index="0" speed="5.65" length="9.26" shape="1535.20,435.30 1534.83,432.54 1533.74,431.06 1531.91,430.88 1529.35,431.99"/>
    </edge>
    <edge id=":n17_1" function="internal">
        <lane id=":n17_1_0" index="0" speed="20.00" length="22.93" shape="1535.20,435.30 1535.20,412.38"/>
        <lane id=":n17_1_1" index="1" speed="20.00" length="22.93" shape="1538.40,435.30 1538.40,412.38"/>
    </edge>
    <edge id=":n17_3" function="internal">
        <lane id=":n17_3_0" index="0" speed="3.65" length="1.44" shape="1538.40,435.30 1539.20,434.10"/>
    </edge>
    <edge id=":n17_12" function="internal">
        <lane id=":n17_12_0" index="0" speed="3.65" length="3.23" shape="1539.20,434.10 1540.00,433.70 1540.80,434.10 1541.60,435.30"/>
    </edge>
    <edge id=":n17_4" function="internal">
        <lane id=":n17_4_0" index="0" speed="20.00" length="22.93" shape="1544.80,412.38 1544.80,435.30"/>
        <lane id=":n17_4_1" index="1" speed="20.00" length="22.93" shape="1541.60,412.38 1541.60,435.30"/>
    </edge>
    <edge id=":n17_6" function="internal">
        <lane id=":n17_6_0" index="0" speed="12.93" length="3.59" shape="1541.60,412.38 1540.88,415.89"/>
    </edge>
    <edge id=":n17_7" function="internal">
        <lane id=":n17_7_0" index="0" speed="3.65" length="1.44" shape="1541.60,412.38 1540.80,413.58"/>
    </edge>
    <edge id=":n17_13" function="internal">
        <lane id=":n17_13_0" index="0" speed="12.93" length="19.15" shape="1540.88,415.89 1540.73,416.63 1538.13,420.86 1533.78,425.06 1527.70,429.25"/>
    </edge>
    <edge id=":n17_14" function="internal">
        <lane id=":n17_14_0" index="0" speed="3.65" length="3.23" shape="1540.80,413.58 1540.00,413.98 1539.20,413.58 1538.40,412.38"/>
    </edge>
    <edge id=":n17_8" function="internal">
        <lane id=":n17_8_0" index="0" speed="10.97" length="16.20" shape="1524.41,423.76 1529.13,420.62 1532.50,417.67 1534.53,414.93 1535.20,412.38"/>
        <lane id=":n17_8_1" index="1" speed="11.99" length="19.46" shape="1526.05,426.50 1531.46,422.84 1535.31,419.27 1537.63,415.78 1538.40,412.38"/>
    </edge>
    <edge id=":n17_10" function="internal">
        <lane id=":n17_10_0" index="0" speed="8.80" length="24.59" shape="1526.05,426.50 1532.86,423.55 1537.71,424.04 1540.63,427.95 1541.60,435.30"/>
    </edge>
    <edge id=":n17_11" function="internal">
        <lane id=":n17_11_0" index="0" speed="3.65" length="2.34" shape="1526.05,426.50 1527.49,426.57 1528.25,427.05"/>
    </edge>
    <edge id=":n17_15" function="internal">
        <lane id=":n17_15_0" index="0" speed="3.65" length="2.34" shape="1528.25,427.05 1528.32,427.94 1527.70,429.25"/>
    </edge>
    <edge id=":n18_0" function="internal">
        <lane id=":n18_0_0" index="0" speed="7.22" length="11.37" shape="1735.20,550.40 1734.68,547.95 1733.10,546.20 1730.48,545.15 1726.80,544.80"/>
    </edge>
    <edge id=":n18_1" function="internal">
        <lane id=":n18_1_0" index="0" speed="20.00" length="22.28" shape="1735.20,550.40 1735.02,544.20 1734.36,539.61 1733.05,535.14 1730.92,529.29"/>
        <lane id=":n18_1_1" index="1" speed="20.00" length="22.28" shape="1738.40,550.40 1738.19,544.03 1737.46,539.06 1736.08,534.20 1733.92,528.18"/>
    </edge>
    <edge id=":n18_3" function="internal">
        <lane id=":n18_3_0" index="0" speed="3.65" length="1.44" shape="1738.40,550.40 1739.20,549.20"/>
    </edge>
    <edge id=":n18_12" function="internal">
        <lane id=":n18_12_0" index="0" speed="3.65" length="3.23" shape="1739.20,549.20 1740.00,548.80 1740.80,549.20 1741.60,550.40"/>
    </edge>
    <edge id=":n18_4" function="internal">
        <lane id=":n18_4_0" index="0" speed="20.00" length="24.53" shape="1739.92,525.96 1742.15,532.33 1743.66,537.95 1744.53,543.68 1744.80,550.40"/>
        <lane id=":n18_4_1" index="1" speed="20.00" length="24.53" shape="1736.92,527.07 1739.11,533.27 1740.56,538.50 1741.36,543.85 1741.60,550.40"/>
    </edge>
    <edge id=":n18_6" function="internal">
        <lane id=":n18_6_0" index="0" speed="8.86" length="5.43" shape="1736.92,527.07 1738.07,532.38"/>
    </edge>
    <edge id=":n18_7" function="internal">
        <lane id=":n18_7_0" index="0" speed="3.65" length="1.44" shape="1736.92,527.07 1736.58,528.47"/>
    </edge>
    <edge id=":n18_13" function="internal">
        <lane id=":n18_13_0" index="0" speed="8.86" length="16.98" shape="1738.07,532.38 1738.30,533.43 1737.08,537.97 1733.25,540.69 1726.80,541.60"/>
    </edge>
    <edge id=":n18_14" function="internal">
        <lane id=":n18_14_0" index="0" speed="3.65" length="3.23" shape="1736.58,528.47 1735.97,529.13 1735.08,529.03 1733.92,528.18"/>
    </edge>
    <edge id=":n18_8" function="internal">
        <lane id=":n18_8_0" index="0" speed="5.88" length="9.11" shape="1726.80,535.20 1729.42,534.83 1730.98,533.72 1731.48,531.88 1730.92,529.29"/>
        <lane id=":n18_8_1" index="1" speed="7.52" length="15.76" shape="1726.80,538.40 1731.34,537.76 1734.03,535.85 1734.89,532.65 1733.92,528.18"/>
    </edge>
    <edge id=":n18_10" function="internal">
        <lane id=":n18_10_0" index="0" speed="9.77" length="21.65" shape="1726.80,538.40 1733.28,539.15 1737.90,541.40 1740.68,545.15 1741.60,550.40"/>
    </edge>
    <edge id=":n18_11" function="internal">
        <lane id=":n18_11_0" index="0" speed="3.65" length="2.34" shape="1726.80,538.40 1728.00,539.20 1728.40,540.00"/>
    </edge>
    <edge id=":n18_15" function="internal">
        <lane id=":n18_15_0" index="0" speed="3.65" length="2.34" shape="1728.40,540.00 1728.00,540.80 1726.80,541.60"/>
    </edge>
    <edge id=":n19_0" function="internal">
        <lane id=":n19_0_0" index="0" speed="6.51" length="9.03" shape="1535.20,290.40 1534.85,287.95 1533.80,286.20 1532.05,285.15 1529.60,284.80"/>
    </edge>
    <edge id=":n19_1" function="internal">
        <lane id=":n19_1_0" index="0" speed="20.00" length="20.80" shape="1535.20,290.40 1535.20,269.60"/>